Circuit: * C:\git\msx\bs\Simulation\vbus_in_filter.asc

Direct Newton iteration for .op point succeeded.

Date: Mon Apr 08 15:30:57 2019
Total elapsed time: 0.048 seconds.

tnom = 27
temp = 27
method = modified trap
totiter = 855
traniter = 852
tranpoints = 427
accept = 303
rejected = 124
matrix size = 7
fillins = 0
solver = Normal
Matrix Compiler1: 366 bytes object code size  0.1/0.1/[0.1]
Matrix Compiler2: off  [0.0]/0.1/0.1

